C     Last change:  HMH  16 Apr 2015    3:11 am
c
c     lkmatsize_actual       determines the number of control points and strength parameters for the leakage grid.
c     lkczc_actual           collocation point generator
c     lkgenmat               generate matrix coefficients
c     lkmatcorrect_actual    correct matrix coefficients for leakage condition (same as line-sinks)
c     lkkno_actual           generation of the known vector
c     lkupdate_actual        update conditions at collocation points
c     lksub_actual           substition of the leakage parameters
c     lksolve_actual         Gauss-Seidel solver for leakage
c     lkcombineequations_actual  combine equations for sub-cells into a single average equation for the MODFLOW cell
c     lksubgridsolve         subroutine is called in SOLUT to generate a new solution for all sub-cell leakage rates
c     lksubgridsolve_actual  called from entry lksubgridsolve_sub in LKIN
c
c
c ---------------------------------------------------------------------------------------------
c
c     Solution procedure:
c     Add all MODFLOW cells with a ilkresolution(i,j)>0 to the matrix.
c     Set as a boundary condition the potential at the center of the cell if ilkresolution(i,j)=1,
c     else use the average potential at all sub-grid cell centers (ilkresolution(i,j)>1)
c     This formulation will be designed in such a manner that the resulting leakage is equal to
c     or very close to the average leakage over the cell.
c     To calculate sub-grid leakages, solve for these in groups of nine cells
c     and store the difference with the average leakage for the MODFLOW cell.
c     Calculation of the field variables (heads, discharges, velocities) is done by evaluating all
c     analytic elements (including all MODFLOW cells) and then adding the sub-grid contributions of
c     the cell in which the point occurs and of the 8 surrounding cells.
c
c     Note: formulate the procedure above in terms of leakage increments from the existing leakage.
c
c -------------------------------------------------------------------------------------------------------
c
      subroutine lkmatsize_actual (M,N,nrow,ncol,ilkresolution)
c
c     Routine add the number of equations and number of unkowns to the counters M and N
c     Each cell may have a number of sub-cells defined by ilkresolution(irow,jcol).
c     If lkaveragehead=.true. overspecification is used by introducing 1 equation per sub-cell.
c     If lkaveragehead=.false. no overspecification is used; there will be only one equation per cell.
c
c     This routine is called by ENTRY lkmatsize(M,N) in LKIN in the file LKMOD.FOR
c
c    Note on the meaning of ilkresolution
c
c    ilkresolution(i,j)=0  cell is to be excluded from the matrix (initial leakage value to be kept)
c    ilkresolution(i,j)=1  cell has NO subgrid, only one collocation point at the center.
c    ilkresolution(i,j)=2  cell has a 2*2 subgrid, hence 4 sub-cells.
c    ilkresolution(i,j)=3  cell has a 3*3 subgrid, hence 9 sub-cells.
c            etc.
c
c    For ilkresolution>1 either "lkaveragehead" or "lkincludesubgrid" must be true!
c
c
      implicit none
      INTEGER M,N,nrow,ncol,ilkresolution,i,j,iresolution
      DIMENSION ilkresolution(nrow,ncol)
      INCLUDE 'lkcom.inc'
      INCLUDE 'lusys.inc'
c
      if (lkleakage.and.lksolving) then
      do i=1,nrow
        do j=1,ncol
          iresolution=ilkresolution(i,j)
          select case (iresolution)
              case (0)
c              no equation, skip
              case (1)
               M=M+1
               N=N+1
              case (2:)
               if (lkaveragehead) then ! use average head condition, requires 1 equation per sub-cell
                M=M+iresolution*iresolution ! later, in lkmatcorrect_actual these equations will be combined into 1
                N=N+1
               else
                M=M+1
                N=N+1
                write (iluer,1000)
 1000 format (' WARNING: ilkresolution > 1, but lkaveragehead=false!')
               endif
              case default
               write (iluer,2000) i,j,iresolution
 2000 format (' ***ERROR in LKMATSIZE_ACTUAL:',/,
     & 'iresolution(',i4,','i4,')=',i6,' which is invalid.',/,
     & 'Program execution has been aborted.')
               AMESS(1)='Subgrid resolution out of range.'
               AMESS(2)='Stored in file: "basename.grs"'
               AMESS(3)='Correct and rerun.'
               CALL HALT(3) ! stop program execution for batch version
          end select
        end do
      end do
      end if
      return
c
      end subroutine
c
C---------------------------------------------------------------------------------------------------------
C
      SUBROUTINE lkczc_actual (CZI,M,N,mtot,DRFAC,CALPH,ITYPE,
     &             lDirectFromDisk,ltimer,
     &           nrow,ncol,rlkdeltax,rlkdeltay,
     &           ilkresolution,rlkleakage)
C
C---------------------------------------------------------------------------------------------------------
C
c     Routine generates the solution arrays: czi, itype, and drfac.
c
c
c
c
c
      IMPLICIT NONE
      INTEGER(4) M,N,ITYPE,i,j,nsolOut,nrow,ncol,
     &           irow,jcol,ii,jj,mtot,
     &           ilkresolution,iresolution
      LOGICAL lDirectFromDisk,
     &        lsolOut,loadsolOut,linalreadyOut,
     &        lErrorReportOut,lDirectfromDiskOut,ltimer
      REAL(8) DRFAC,rlkdeltax,rlkdeltay,rx,ry,rx1,ry1,rdx,rdy,
     &        resolution,rdxx,rdyy,rxx,ryy,rlkleakage
      COMPLEX(8) CZI,CALPH,CZ0,CZOLD,CZ0FIRST,
     &           cz1,cz2,cz3,cz
      CHARACTER(8) aBasenameOut
      CHARACTER(16)aDateTimeOut
      INCLUDE 'lkcom.inc'
      INCLUDE 'lusys.inc'
      INCLUDE 'tracom.inc'
      DIMENSION CZI(mtot),DRFAC(4,mtot),CALPH(mtot),ITYPE(mtot)
      DIMENSION rlkdeltax(ncol),rlkdeltay(nrow),
     &          ilkresolution(nrow,ncol),rlkleakage(nrow,ncol)
c
      if (lkleakage.and.lksolving) then
c
      call GetMainData (lsolOut,loadsolOut,linalreadyOut,
     &           lErrorReportOut,lDirectfromDiskOut,
     &           aBasenameOut,aDateTimeOut,nsolOut)
c
      ilkmin=m+1 ! first equation for the leakage grid
      rx1=rlkx0
      ry1=rlky0
      do i=1,nrow
       rdy=rlkdeltay(i)
       ry=ry1-0.5*rdy
       do j=1,ncol
        iresolution=ilkresolution(i,j)
        rdx=rlkdeltax(j)
        rx=rx1+0.5*rdx
       select case (iresolution)
           case (0)
c           no equation, skip
c
           case (1)             ! add one equation to matrix
            m=m+1 ! one equation per cell
            n=n+1 ! one unknown leakage rate per cell
            czi(m)=CMPLX(rx,ry)
            calph(m)=(0.0,0.0)
            drfac(1,m)=1.0d0
            itype(m)=1
c            if (nsolOut.eq.0) then ! zero out the leakage in case first solve
c              rlkleakage(i,j)=0.0
c            end if
c
           case (2:)
           if (lkaveragehead) then
             n=n+1  ! add only one unkown, the leakage for the MODFLOW cell
             resolution=REAL(iresolution)
             call lk_cell_construct(i,j,rdx,rdy,cz0,cz1,cz2,cz3)
c
c     MODFLOW cell structure:
c                               Origin-----> columns
c     cz3-----------cz2         ||
c      |             |          ||
c      |             |          \/
c      |             |
c      |             |         rows
c     cz0-----------cz1
c
             rdxx=rdx/resolution
             rdyy=rdy/resolution
             rxx=0.5*rdxx
             ryy=0.5*rdyy
             cz=cz0+CMPLX(rxx,ryy)
c
c     example of subgrid control point generation:
c
c      -----------------------
c     |                       |
c     |   7       8       9   |
c     |                       |
c     |   4       5       6   |
c     |                       |
c     |   1       2       3   |
c     |                       |
c      -----------------------
c
             do ii=1,iresolution
             do jj=1,iresolution
               m=m+1  ! add an equation for every sub-cell
               czi(m)=cz
c      write (iluer,1001) ii,jj,m,rx,ry,rdxx,rdyy,cz
c 1001 format ('lkczc1: ii,jj,m,rx,ry,rdxx,rdyy,cz',/,
c     &         3i5,6(d14.7))
               calph(m)=(0.0,0.0)
               drfac(1,m)=1.0d0
               itype(m)=1
               cz=cz+CMPLX(rdxx,0.0d0)
             end do
               rxx=0.5*rdxx
               ryy=ryy+rdyy
               cz=cz0+CMPLX(rxx,ryy)
             end do
           else    ! resolution >1, but no average head requested, treat as case 1
             m=m+1 ! one equation per cell
             n=n+1 ! one unknown leakage rate per cell
             czi(m)=CMPLX(rx,ry)
             calph(m)=(0.0,0.0)
             drfac(1,m)=1.0d0
             itype(m)=1
c            if (nsolOut.eq.0) then ! zero out the leakage in case first solve
c              rlkleakage(i,j)=0.0
c            end if
           endif
c
           case default
            write (iluer,1000) i,j,iresolution
 1000 format (' ***ERROR in LKCZC_ACTUAL:',/,
     & 'iresolution(',i3,','i3,')=',i6,' which is invalid.',/,
     & 'Program execution has been aborted.')
            AMESS(1)='Subgrid resolution out of range.'
            AMESS(2)='Stored in file: "basename.grs"'
            AMESS(3)='Correct and rerun.'
            CALL HALT(3) ! stop program execution for batch version
       end select
c
        rx1=rx1+rdx
       end do
       rx1=rlkx0
       ry1=ry1-rdy
      end do
      end if
      ilkmax=m ! last equation for the leakage grid
      return
      end
C
C---------------------------------------------------------------------------------------------------------
C
      SUBROUTINE lkgenmat_actual (DRA,CZI,M,N,J,CALPH,ITYPE,
     &                  nrow,ncol,rlkconst,ilkresolution)
C
C---------------------------------------------------------------------------------------------------------
c
c     Generate initial matrix coefficients (without corrections)
c
c     ra(i,j) i=row number (equation number) j=element number (column number)
c
c     IMPORTANT
c     The idea is to let every cell generate a potential coefficient at its own collocation point
C     so the matrix equations can be used in "lkupdate_head" for fast recalculation of all potentials
C     at cell collocation points. The actual matrix coefficients necessary for the matrix solution
c     will be created by modifying these initial matrix coefficients in "lkmatcorrect."
c
      IMPLICIT NONE
      INTEGER(4) M,N,J,ITYPE,I,IEQS,IEQ,nrow,ncol,
     &           irow,jcol,ilkresolution,iresolution
      LOGICAL LNEG,linside
      REAL(8) DRA,rlkconst,rdx,rdy,rx,ry,rconst
      COMPLEX(8) CZI,CALPH,CZ1,CZ2,CZ3,CZ0,CZ,CZA,
     &           comega,cdum1,cdum2,comls,cflk_omega_par,cdum,
     &           cflk_omega_coefficient
      INCLUDE 'lkcom.inc'
      INCLUDE 'lusys.inc'
      DIMENSION DRA(M,N),CZI(M),CALPH(M),ITYPE(M)
      DIMENSION rlkconst(nrow,ncol+1),ilkresolution(nrow,ncol)
c
      if (lkleakage.and.lksolving) then
      do irow=1,nrow
       do jcol=1,ncol
       iresolution=ilkresolution(irow,jcol)
       select case (iresolution)
           case (0)
c           no equation, skip
           case (1:)               ! add a column to the matrix
       call lk_cell_construct (irow,jcol,rdx,rdy,cz0,cz1,cz2,cz3)
c       write (iluer,1001) irow,jcol,cz0,cz1,cz2,cz3,rdx,rdy
c 1001 format (' lkgenmat1: irow,jcol='2i5,/,
c     & 'cz0,cz1,cz2,cz3,rdx,rdy -->',/,4(2(d14.7),2x),d14.7,2x,d14.7)
c
c     rx0,ryo is lower left of cell =cz0
c     rx1,ry1 is upper right of cell =cz2
c
c     cell structure:
c                               Origin-----> columns
c     cz3-----------cz2         ||
c      |             |          ||
c      |             |          \/
c      |             |
c      |             |         rows
c     cz0-----------cz1
c
       J=J+1    ! next column in coefficient matrix
       DO 10 I=1,M    ! add as many equations as there are control points generated in LKCZC_actual
       CZ=CZI(I)
c                      generate comega at CZ due to the cell.
c       cdum1=comls(cz,cz3,cz0)+comls(cz,cz2,cz1)+
c     &       rlkconst(irow,jcol)+rlkconst(irow,jcol+1)
c       cdum2=cflk_omega_par(cz,cz0,cz1)-cflk_omega_par(cz,cz3,cz2)
c       comega=0.5*rdx*cdum1+0.125*rdx*rdx*cdum2
       rconst=(rlkconst(irow,jcol)+rlkconst(irow,jcol+1))*0.5
       rx=REAL(cz-0.5*(cz0+cz2))
       ry=aimag(cz-0.5*(cz0+cz2))
       linside=ABS(rx).lt.0.5*rdx.and.ABS(ry).lt.0.5*rdx
       comega=cflk_omega_coefficient(cz,
     &                            cz0,rdx,rdy,rconst,linside)
c       if (ABS(rx).lt.0.5*rdx.and.ABS(ry).lt.0.5*rdx) THEN ! inside cell, add Poisson term
c        comega=comega+0.5*(rx-0.5*rdx)*(rx+0.5*rdx)
c      cdum=0.5*(rx-0.5*rdx)*(rx+0.5*rdx)
c      write (iluer,1002) rx,ry,cdum
c 1002 format (' lkgenmat2: rx,ry,cdum=',4(d14.7))
c       endif                                                    !!! REPLACE
c        write (iluer,1004) i,j,cz,cdum1,cdum2,comega
c 1004 format (' lkgenmat4: i,j,cz,cdum1,cdum2,comega-->'
c     &        ,i3,1x,i3,4(2(d14.7),2x))
c
       CZA=CALPH(I)
       IEQS=ITYPE(I)
C
C ITYPE=+1 potential specified at CZ
C       -1 difference in potential specified: PHI(CZ)-PHI(CZA)
C       +2 stream function specified at CZ
C       -2 flow across the line between CZ & CZA, positive from left to right when at CZ
C       +3 discharge component normal to the unit vector CZA (rotated to the left)
C       +4 discharge component parallel to the unit vector CZA
C        5 continuity equation: provide total discharge
C        6 request for zero matrix element
C
       LNEG=IEQS.LT.0
       IEQ=IABS(IEQS)
       GOTO (1,2,3,4,5,1),IEQ  ! note itype 6 is interpreted here as itype=1, to get desired potential
c                               coefficient at the collocation points.
   1   DRA(I,J)=DRA(I,J)+REAL(comega) ! provide potential at CZ
c                       note: handle difference in PHI in klmatcorrect
       GOTO 9
   2   IF (LNEG) THEN  !!! NOT YET PROVIDED, NECESSARY FOR HORIZONTAL BARRIERS!!!!
c       DRA(I,J)=DRA(I,J)+RFNFLSCO(IAD,CZ,CZA) ! provide flow across CZ & CZA (sink density 1)
       ELSE
        DRA(I,J)=DRA(I,J)+AIMAG(comega)  ! provide PSI at CZ
       END IF
       GOTO 9
   3   CONTINUE ! not provided
       GOTO 9
   4   CONTINUE ! not provided
       GOTO 9
   5   DRA(I,J)=DRA(I,J)+rdx*rdy    ! provide total discharge for continuity equation
   9   continue
   10  CONTINUE
           case default
            write (iluer,1000) i,j,iresolution
 1000 format (' ***ERROR in LKGENMAT_ACTUAL:',/,
     & 'iresolution(',i3,','i3,')=',i6,' which is invalid.',/,
     & 'Program execution has been aborted.')
            AMESS(1)='Subgrid resolution out of range.'
            AMESS(2)='Stored in file: "basename.grs"'
            AMESS(3)='Correct and rerun.'
            CALL HALT(3) ! stop program execution for batch version
       end select
       end do
      end do
      end if
      RETURN
      END
C
C---------------------------------------------------------------------------------------------------------
C
      SUBROUTINE lkmatcorrect_actual (DRA,CZI,M,N,J,CALPH,ITYPE,
     &              nrow,ncol,rlkconst,rlkresist,rlkpot,rlkheadlower,
     &              rlksubheadlower,ilkresolution,rlksubpotupper,
     &              rlksublambda2init,nbuf)
C
C---------------------------------------------------------------------------------------------------------
c
c     Apply corrections to matrix coefficients for Cauchy boundary condition
c
c     ra(i,j) i=row number (equation number) j=element number (column number)
c
      IMPLICIT NONE
      INTEGER(4) M,N,J,ITYPE,I,IEQS,IEQ,nrow,ncol,ires2,nbuf,
     &           irow,jcol,nsolOut,ilkresolution,iresolution,iad
      LOGICAL LNEG,lsolOut,loadsolOut,linalreadyOut,
     &           lErrorReportOut,lDirectfromDiskOut,
     &           leakage_equation
      REAL(8) DRA,rlkconst,rlkresist,rdx,rdy,rh,rx,ry,
     &        rfperm,rfbase,rfhght,rfhead,RK0,RH0,RHED0,RB0,RP0,
     &        lambdasquared,rlkpot,rb,rfhedp,rlkheadlower,
     &        rlksubpotupper,rlksublambda2init,rlksubheadlower
      COMPLEX(8) CZI,CALPH,CZ1,CZ2,CZ3,CZ0,CZ,CZA,
     &           comega,cdum1,cdum2,comls,cflk_omega_par,
     &           czref
      CHARACTER(8) aBasenameOut
      CHARACTER(16)aDateTimeOut
      INCLUDE 'lkcom.inc'
      INCLUDE 'lusys.inc'
      DIMENSION DRA(M,N),CZI(M),CALPH(M),ITYPE(M)
      DIMENSION rlkconst(nrow,ncol+1),rlkresist(nrow,ncol),
     &          rlkpot(nrow,ncol),rlkheadlower(nrow,ncol),
     &          ilkresolution(nrow,ncol),rlksubpotupper(nbuf),
     &          rlksublambda2init(nbuf),rlksubheadlower(nbuf)
c
      call GetMainData (lsolOut,loadsolOut,linalreadyOut,
     &           lErrorReportOut,lDirectfromDiskOut,
     &           aBasenameOut,aDateTimeOut,nsolOut)
      call GVPAR (RK0,RH0,RHED0,RB0,RP0,CZref)
c
      if (lkleakage.and.lksolving) then
      iad=0  ! address counter for 1D sub-cell arrays
c      write (iluer,1001) ilkmin,ilkmax
c 1001 format (' lkmatcorrect_actual1: ilkmin,ilkmax ',2i6)
      do irow=1,nrow
       do jcol=1,ncol
       iresolution=ilkresolution(irow,jcol)
c       write (iluer,1003) irow,jcol,iresolution
c 1003 format ('lkmatcorrect3: irow,jcol,iresolution ',3i5)
       select case (iresolution)
c
c
           case (0)
c           skip, no equation
c
c
           case (1)               ! correct equation                          ---- case (1) -----
       call lk_cell_construct (irow,jcol,rdx,rdy,cz0,cz1,cz2,cz3)
c
c     rx0,ryo is lower left of cell =cz0
c     rx1,ry1 is upper right of cell =cz2
c
c     cell structure:
c                               Origin-----> columns
c     cz3-----------cz2         ||
c      |             |          ||
c      |             |          \/
c      |             |
c      |             |         rows
c     cz0-----------cz1
c
       J=J+1    ! next column in coefficient matrix
       DO I=1,M
       leakage_equation=i.ge.ilkmin.and.i.le.ilkmax ! check that we are in the range of the leakage equations
       CZ=CZI(I)
       CZA=CALPH(I)
       IEQS=ITYPE(I)
       if (ieqs.EQ.-1) then
c                      generate comega at CZA due to the cell.
       cdum1=comls(cza,cz3,cz0)+comls(cza,cz2,cz1)+
     &       rlkconst(irow,jcol)+rlkconst(irow,jcol+1)
       cdum2=cflk_omega_par(cza,cz3,cz2)-cflk_omega_par(cza,cz0,cz1)
       comega=0.5*rdx*cdum1+0.125*rdx*rdx*cdum2
       rx=REAL(cza-0.5*(cz0+cz2))
       if (ABS(rx).lt.0.5*rdx) THEN ! inside cell, add Poisson term
        rx=0.5*rdx-rx
        comega=comega+0.5*rx*(rdx-rx)
       end if
       END if
c
C
C ITYPE=+1 potential specified at CZ
C       -1 difference in potential specified: PHI(CZ)-PHI(CZA)
C       +2 stream function specified at CZ
C       -2 flow across the line between CZ & CZA, positive from left to right when at CZ
C       +3 discharge component normal to the unit vector CZA (rotated to the left)
C       +4 discharge component parallel to the unit vector CZA
C        5 continuity equation: provide total discharge
C        6 request for zero matrix element
C
       LNEG=IEQS.LT.0
       IEQ=ABS(IEQS)
       if (ieq.eq.1.and.leakage_equation) then   ! this assures that we are not hitting a coinciding control point of anoter element type
        if (ABS(cz-0.5*(cz0+cz2)).lt.0.01) then  ! at MODFLOW cell center, apply lambda squared term
         rb=rfbase(cz)
         if (nsolOut.eq.1) then ! nsol incremented after generation of czi and calls of update routine in SOLUT!
           rh=rhed0-rb  ! use head at reference point as the initial head (no solution yet)
         else  ! at least one solution completed
           rh=rfhedp(rlkpot(irow,jcol),cz)-rb
         endif
         if (rh.lt.rh0) then ! unconfined --> rh= (upperhead+lowerhead)/2
           rh=0.5*(rh+rlkheadlower(irow,jcol)-rb)
         else
           rh=rh0  ! confined --> rh= aquifer thickness
         end if
c      write (iluer,1001) nsolOut,rh
c 1001 format (' lkmatcorrect_actual1: nsolOut=',i5,' rh=',d14.7)
         lambdasquared=rfperm(cz)*rh*rlkresist(irow,jcol)
         DRA(I,J)=DRA(I,J)-lambdasquared
        end if
        IF (LNEG) THEN
          DRA(I,J)=DRA(I,J)-REAL(comega) ! subtract potential at CZA
        ENDIF
       endif
       if (ieq.eq.6) then ! zero matrix coefficient requested
        DRA(I,J)=0.0D0
       end if
       enddo
c
c
c
       case (2:)      ! apply correction to all subcells                      ---- case (2:) ----
c
       call lk_cell_construct (irow,jcol,rdx,rdy,cz0,cz1,cz2,cz3)
c
c     rx0,ryo is lower left of cell =cz0
c     rx1,ry1 is upper right of cell =cz2
c
c     cell structure:
c                               Origin-----> columns
c     cz3-----------cz2         ||
c      |             |          ||
c      |             |          \/
c      |             |
c      |             |         rows
c     cz0-----------cz1
c
       J=J+1    ! next column in coefficient matrix (only one column for this MODFLOW cell, regardless of number of subcells)
      if (lkaveragehead) then
       DO I=1,M
       leakage_equation=i.ge.ilkmin.and.i.le.ilkmax ! check that we are in the range of the leakage equations
       CZ=CZI(I)
       CZA=CALPH(I)
       IEQS=ITYPE(I)
       if (ieqs.EQ.-1) then
c                      generate comega at CZA due to the cell.
       cdum1=comls(cza,cz3,cz0)+comls(cza,cz2,cz1)+
     &       rlkconst(irow,jcol)+rlkconst(irow,jcol+1)
       cdum2=cflk_omega_par(cza,cz3,cz2)-cflk_omega_par(cza,cz0,cz1)
       comega=0.5*rdx*cdum1+0.125*rdx*rdx*cdum2
c
       rx=REAL(cza-0.5*(cz0+cz2))
       if (ABS(rx).lt.0.5*rdx) THEN ! inside cell, add Poisson term
        rx=0.5*rdx-rx
        comega=comega+0.5*rx*(rdx-rx)
       end if
       END if
c
C
C ITYPE=+1 potential specified at CZ
C       -1 difference in potential specified: PHI(CZ)-PHI(CZA)
C       +2 stream function specified at CZ
C       -2 flow across the line between CZ & CZA, positive from left to right when at CZ
C       +3 discharge component normal to the unit vector CZA (rotated to the left)
C       +4 discharge component parallel to the unit vector CZA
C        5 continuity equation: provide total discharge
C        6 request for zero matrix element
C
       LNEG=IEQS.LT.0
       IEQ=ABS(IEQS)
       if (ieq.eq.1.and.leakage_equation) then  ! only when in range of leakage equations check for lambda squared correction
       rx=REAL(cz-0.5*(cz0+cz2))
       ry=AIMAG(cz-0.5*(cz0+cz2))
       rb=rfbase(cz)
       if (ABS(rx).lt.0.5*rdx.and.ABS(ry).lt.0.5*rdy) THEN ! at a sub-cell center, apply lambda squared term
c       write (iluer,1004)
c 1004  format ('lkmatcorrect_actual4: we came to here.')
           iad=iad+1             ! find address for sub-cell arrays
           if (iad.gt.nbuf) then
            WRITE(iluer,2000) iad,nbuf
           end if
         if (nsolOut.eq.1) then ! nsol incremented after generation of czi and calls of update routine in SOLUT!
           rh=rhed0-rb  ! use head at reference point as the initial head (no solution yet)
         else  ! at least one solution completed
           rh=rfhedp(rlksubpotupper(iad),cz)-rb
         endif
         if (rh.lt.rh0) then ! unconfined --> rh= (upperhead+lowerhead)/2
           rh=0.5*(rh+rlksubheadlower(iad)-rb)
         else
           rh=rh0  ! confined --> rh= aquifer thickness
         end if
c      write (iluer,1004) nsolOut,iad,rh
c 1004 format('lkmatcorrect_actual4: nsolOut=',i5,'iad=',i5,' rh=',d14.7)
         lambdasquared=rfperm(cz)*rh*rlkresist(irow,jcol)
         rlksublambda2init(iad)=lambdasquared ! keep for use in lkkno() !!!! **** Hmmm.. we will always have an inaccurate lambda
c                                             Perhaps do matrix correction and decomposition twice. Also for other non-linear
c                                             equations that would be affected by an inaccurate first head and potential.
c      write (iluer,1002) iad,lambdasquared
c 1002 format ('lkmatcorrect_actual2: rlksublambda2init(',i4,')=',d14.7)
         DRA(I,J)=DRA(I,J)-lambdasquared     ! note that this is an initial value, we will use updated values in lkkno()
        end if
        IF (LNEG) THEN
          DRA(I,J)=DRA(I,J)-REAL(comega) ! subtract potential at CZA
        ENDIF
       endif
       if (ieq.eq.6) then ! zero matrix coefficient requested
        DRA(I,J)=0.0D0
       end if
       enddo
c
      else ! sub-cells, but no average heads specified, treat as case 1
c
       DO I=1,M
       leakage_equation=i.ge.ilkmin.and.i.le.ilkmax ! check that we are in the range of the leakage equations
       CZ=CZI(I)
       CZA=CALPH(I)
       IEQS=ITYPE(I)
       if (ieqs.EQ.-1) then
c                      generate comega at CZA due to the cell.
       cdum1=comls(cza,cz3,cz0)+comls(cza,cz2,cz1)+
     &       rlkconst(irow,jcol)+rlkconst(irow,jcol+1)
       cdum2=cflk_omega_par(cza,cz3,cz2)-cflk_omega_par(cza,cz0,cz1)
       comega=0.5*rdx*cdum1+0.125*rdx*rdx*cdum2
       rx=REAL(cza-0.5*(cz0+cz2))
       if (ABS(rx).lt.0.5*rdx) THEN ! inside cell, add Poisson term
        rx=0.5*rdx-rx
        comega=comega+0.5*rx*(rdx-rx)
       end if
       END if
c
C
C ITYPE=+1 potential specified at CZ
C       -1 difference in potential specified: PHI(CZ)-PHI(CZA)
C       +2 stream function specified at CZ
C       -2 flow across the line between CZ & CZA, positive from left to right when at CZ
C       +3 discharge component normal to the unit vector CZA (rotated to the left)
C       +4 discharge component parallel to the unit vector CZA
C        5 continuity equation: provide total discharge
C        6 request for zero matrix element
C
       LNEG=IEQS.LT.0
       IEQ=ABS(IEQS)
       if (ieq.eq.1.and.leakage_equation) then   ! this assures that we are not hitting a coinciding control point of anoter element type
        if (ABS(cz-0.5*(cz0+cz2)).lt.0.01) then  ! at MODFLOW cell center, apply lambda squared term
         rb=rfbase(cz)
         if (nsolOut.eq.1) then ! nsol incremented after generation of czi and calls of update routine in SOLUT!
           rh=rhed0-rb  ! use head at reference point as the initial head (no solution yet)
         else  ! at least one solution completed
           rh=rfhedp(rlkpot(irow,jcol),cz)-rb
         endif
         if (rh.lt.rh0) then ! unconfined --> rh= (upperhead+lowerhead)/2
           rh=0.5*(rh+rlkheadlower(irow,jcol)-rb)
         else
           rh=rh0  ! confined --> rh= aquifer thickness
         end if
c      write (iluer,1001) nsolOut,rh
c 1001 format (' lkmatcorrect_actual1: nsolOut=',i5,' rh=',d14.7)
         lambdasquared=rfperm(cz)*rh*rlkresist(irow,jcol)
         DRA(I,J)=DRA(I,J)-lambdasquared
        end if
        IF (LNEG) THEN
          DRA(I,J)=DRA(I,J)-REAL(comega) ! subtract potential at CZA
        ENDIF
       endif
       if (ieq.eq.6) then ! zero matrix coefficient requested
        DRA(I,J)=0.0D0
       end if
       enddo
      endif

c
c         invalid resolution
c
           case default
            write (iluer,1000) irow,jcol,iresolution
            AMESS(1)='Subgrid resolution out of range.'
            AMESS(2)='Stored in file: "basename.grs"'
            AMESS(3)='Correct and rerun.'
            CALL HALT(3) ! stop program execution for batch version
c
c
       end select
       end do
      end do
      end if
      RETURN
 1000 format (' ***ERROR in LKMATCORRECT_ACTUAL:',/,
     & 'iresolution(',i3,','i3,')=',i6,' which is invalid.',/,
     & 'Program execution has been aborted.')
 2000 format (' ***ERROR in LKMATCORRECT_ACTUAL:',/,
     & 'subarray address',i7,' exceeds subarray buffer',i7)
      END
C
C---------------------------------------------------------------------------------------------------------
C
      SUBROUTINE lkkno_actual (DRB,J,CZI,n,
     &      nrow,ncol,rlkconst,rlkresist,rlkpot,rlkleakage,rlkheadlower,
     &     ilkresolution,rlksubpotupper,rlksubheadlower,
     &     rlksublambda2init,rlksubleakage,nbuf)
C
C---------------------------------------------------------------------------------------------------------
c
c     generate known vector for leakage elements
c
      IMPLICIT NONE
      INTEGER(4) J,nrow,ncol,iad,nbuf,n,
     &           irow,jcol,nsolOut,ii,jj,
     &           ilkresolution,iresolution
      LOGICAL LNEG,lDirectFromDiskOut,lErrorReportOut,
     &        lsolOut,loadsolOut,linalreadyOut,lwrite,lflkincludesubgrid
      REAL(8) DRB,rlkconst,rlkresist,rlkpot,rdx,rdy,rdxx,rdyy,rx,ry,
     &        rfperm,rfbase,RK0,RH0,RHED0,RB0,RP0,resolutionsquared,
     &        lambdasquared,rlkleakage,rlkheadlower,resolution,resist,
     &        rhead,rfhead,rk,rh,rb,rpotlower,rfpoth,rfhght,rfhedp,
     &        rheadlower,rlksubpotupper,rlksubheadlower,
     &        rlksublambda2init,rlksubleakage,rsubleak,rpotupper,
     &        lambda2ratio
      COMPLEX(8) CZI,CALPH,CZ1,CZ2,CZ3,CZ0,CZ,CZA,
     &           comega,cdum1,cdum2,comls,cflk_omega_par,
     &           czref
      CHARACTER(8) aBasenameOut
      CHARACTER(16)aDateTimeOut
      INCLUDE 'lkcom.inc'
      INCLUDE 'lusys.inc'
      DIMENSION DRB(n),CZI(n)
      DIMENSION rlkconst(nrow,ncol+1),rlkresist(nrow,ncol),
     &          rlkpot(nrow,ncol),rlkleakage(nrow,ncol),
     &          rlkheadlower(nrow,ncol),ilkresolution(nrow,ncol),
     &          rlksubpotupper(nbuf),rlksubheadlower(nbuf),
     &          rlksublambda2init(nbuf),rlksubleakage(nbuf)
c
      call GetMainData (lsolOut,loadsolOut,linalreadyOut,
     &           lErrorReportOut,lDirectfromDiskOut,
     &           aBasenameOut,aDateTimeOut,nsolOut)
      call GVPAR (RK0,RH0,RHED0,RB0,RP0,CZref)
c
      if (lkleakage.and.lksolving) then
      iad=0
      do irow=1,nrow
       do jcol=1,ncol
                                                       lwrite=.false.
       iresolution=ilkresolution(irow,jcol)
       select case (iresolution)
c
       case (0)  ! no equation, skip
c
       case (1)  ! no sub-cells, only one unknown
c
       J=J+1
       CZ=CZI(j)
       rk=rfperm(cz)